/*--------------------------------*- C++ -*----------------------------------*\
| =========                 |                                                 |
| \\      /  F ield         | OpenFOAM: The Open Source CFD Toolbox           |
|  \\    /   O peration     | Version:  2.4.0                                 |
|   \\  /    A nd           | Web:      www.OpenFOAM.org                      |
|    \\/     M anipulation  |                                                 |
\*---------------------------------------------------------------------------*/
FoamFile
{
    version     2.0;
    format      ascii;
    class       dictionary;
    location    "system";
    object      controlDict;
}
// * * * * * * * * * * * * * * * * * * * * * * * * * * * * * * * * * * * * * //

#include "../time"

application     interFoam;

startFrom       startTime;

startTime       0;

stopAt          endTime;

endTime         $timetot;

deltaT          $deltat;

writeControl    adjustableRunTime;

writeInterval   $timeoutf;

purgeWrite      0;

writeFormat     binary;

writePrecision  6;

writeCompression compressed;

timeFormat      general;

timePrecision   8;

runTimeModifiable false;

adjustTimeStep  yes;

maxCo           1;
maxDeltaT       1;
maxAlphaCo      0.5;


functions
{
#include "post_functions"
}


// ************************************************************************* //
