/*--------------------------------*- C++ -*----------------------------------*\
| =========                 |                                                 |
| \\      /  F ield         | OpenFOAM: The Open Source CFD Toolbox           |
|  \\    /   O peration     | Version:  2.4.0                                 |
|   \\  /    A nd           | Web:      www.OpenFOAM.org                      |
|    \\/     M anipulation  |                                                 |
\*---------------------------------------------------------------------------*/
FoamFile
{
    version     2.0;
    format      ascii;
    class       dictionary;
    location    "system";
    object      setFieldsDict;
}
// * * * * * * * * * * * * * * * * * * * * * * * * * * * * * * * * * * * * * //

defaultFieldValues
(
    volScalarFieldValue alpha.water 1
    volScalarFieldValue p_rgh 1e5
    volScalarFieldValue p 1e5
    volScalarFieldValue T 300
);

regions
(
    boxToCell
    {
        box (-10 -10 -10) (-0.95 10 10);
        fieldValues
        (
            volScalarFieldValue alpha.water 0
        );
    }
);


// ************************************************************************* //
