/*--------------------------------*- C++ -*----------------------------------*\
| =========                 |                                                 |
| \\      /  F ield         | OpenFOAM: The Open Source CFD Toolbox           |
|  \\    /   O peration     | Version:  2.4.0                                 |
|   \\  /    A nd           | Web:      www.OpenFOAM.org                      |
|    \\/     M anipulation  |                                                 |
\*---------------------------------------------------------------------------*/
FoamFile
{
    version     2.0;
    format      ascii;
    class       dictionary;
    location    "system";
    object      fvSolution;
}
// * * * * * * * * * * * * * * * * * * * * * * * * * * * * * * * * * * * * * //

solvers
{
    pcorr
    {
        solver          PCG;
        preconditioner
        {
            preconditioner  GAMG;
            tolerance       1e-05;
            relTol          0;
            smoother        FDIC;
            nPreSweeps      0;
            nPostSweeps     2;
            nFinestSweeps   2;
            cacheAgglomeration false;
            nCellsInCoarsestLevel 200;
            agglomerator    faceAreaPair;
            mergeLevels     1;
        }
        tolerance       1e-05;
        relTol          0;
        maxIter         10;
    }

    ".*(rho|rhoFinal)"
    {
        solver          diagonal;
    }

    p_rgh
    {
        solver          GAMG;
        tolerance       1e-07;
        relTol          0.01;
        smoother        FDIC;
        nPreSweeps      0;
        nPostSweeps     2;
        nFinestSweeps   2;
        cacheAgglomeration true;
        nCellsInCoarsestLevel 200;
        agglomerator    faceAreaPair;
        mergeLevels     1;
    }

    p_rghFinal
    {
        solver          PCG;
        preconditioner
        {
            preconditioner  GAMG;
            tolerance       1e-07;
            relTol          0;
            nVcycles        2;
            smoother        DICGaussSeidel;
            nPreSweeps      2;
            nPostSweeps     2;
            nFinestSweeps   2;
            cacheAgglomeration true;
            nCellsInCoarsestLevel 200;
            agglomerator    faceAreaPair;
            mergeLevels     1;
        }
        tolerance       1e-07;
        relTol          0;
        maxIter         20;
    }

     "alpha.*"
     {
         nAlphaCorr      1;
         nAlphaSubCycles 2;
         cAlpha          1;
         icAlpha         0.25;
         alphaOuterCorrectors  yes;
         MULESCorr       yes;
         nLimiterIter    3;
         alphaApplyPrevCorr true;
        solver          smoothSolver;
        smoother        symGaussSeidel;
        tolerance       1e-8;
        relTol          0;
     }

    U
    {
        type            coupled;  // optional, defaults to segregated 
        solver          PBiCCCG; 
        preconditioner  DILU; 
        tolerance       (1e-9 1e-9 1e-9); 
        relTol          (0 0 0); 
//        solver          smoothSolver;
//        smoother        symGaussSeidel;
//        nSweeps         2;
//        tolerance       1e-9;
//        relTol          1e-3;
    }

    "(T|k|B|nuTilda).*"
    {
        solver          PBiCG;
        preconditioner  DILU;
        tolerance       1e-08;
        relTol          0;
    }
}

PIMPLE
{
    momentumPredictor no;
    transonic       no;
    nOuterCorrectors 1;
    nCorrectors     4;
    nNonOrthogonalCorrectors 1;
}


// ************************************************************************* //
